Version 4
SHEET 1 880 680
WIRE 224 16 -128 16
WIRE 224 112 224 16
WIRE -128 128 -128 16
WIRE 160 160 16 160
WIRE -128 304 -128 208
WIRE 16 304 16 240
WIRE 16 304 -128 304
WIRE 224 304 224 208
WIRE 224 304 16 304
WIRE 16 336 16 304
FLAG 16 336 0
SYMBOL npn 160 112 R0
SYMATTR InstName Q1
SYMATTR Value 2N2222
SYMBOL current 16 240 R180
WINDOW 0 24 80 Left 2
WINDOW 3 24 0 Left 2
WINDOW 123 0 0 Left 0
WINDOW 39 0 0 Left 0
SYMATTR InstName I1
SYMATTR Value 0
SYMBOL voltage -128 112 R0
WINDOW 123 0 0 Left 0
WINDOW 39 0 0 Left 0
SYMATTR InstName V1
SYMATTR Value 0
TEXT 96 344 Left 2 !.dc V1 0 1.5 0.01 I1 0.0001 0.001 0.0001
